REMARK  Name = 
REMARK  3 active torsions:
REMARK  status: ('A' for Active; 'I' for Inactive)
REMARK    1  A    between atoms: C_2  and  N_3
REMARK    2  A    between atoms: C_2  and  C_6
REMARK    3  A    between atoms: C_10  and  C_11
REMARK                            x       y       z     vdW  Elec       q    Type
REMARK                         _______ _______ _______ _____ _____    ______ ____
ROOT
ATOM      1  C   UNL     1       2.942  -0.683   1.036  0.00  0.00    +0.000 A 
ATOM      2  C   UNL     1       3.989  -0.132   1.788  0.00  0.00    +0.000 A 
ATOM      3  C   UNL     1       4.600  -0.884   2.793  0.00  0.00    +0.000 A 
ATOM      4  C   UNL     1       4.175  -2.190   3.044  0.00  0.00    +0.000 A 
ATOM      5  C   UNL     1       3.145  -2.762   2.281  0.00  0.00    +0.000 A 
ATOM      6  C   UNL     1       2.544  -2.001   1.277  0.00  0.00    +0.000 A 
ATOM      7  F   UNL     1       1.586  -2.572   0.532  0.00  0.00    +0.000 F 
ENDROOT
BRANCH   5   8
ATOM      8  C   UNL     1       2.661  -4.162   2.517  0.00  0.00    +0.000 C 
ATOM      9  F   UNL     1       3.325  -4.791   3.529  0.00  0.00    +0.000 F 
ATOM     10  F   UNL     1       1.344  -4.212   2.858  0.00  0.00    +0.000 F 
ATOM     11  F   UNL     1       2.807  -4.964   1.428  0.00  0.00    +0.000 F 
ENDBRANCH   5   8
BRANCH   1  13
ATOM     12  O   UNL     1       2.881   1.095  -0.478  0.00  0.00    +0.000 OA
ATOM     13  C   UNL     1       2.263   0.158   0.017  0.00  0.00    +0.000 C 
BRANCH  13  14
ATOM     14  N   UNL     1       0.954  -0.165  -0.236  0.00  0.00    +0.000 NA
ATOM     15  C   UNL     1       0.404   0.461  -1.058  0.00  0.00    +0.000 C 
ATOM     16  S   UNL     1      -0.410   1.269  -2.164  0.00  0.00    +0.000 S 
ENDBRANCH  13  14
ENDBRANCH   1  13
TORSDOF 3
