REMARK  Name = 
REMARK  3 active torsions:
REMARK  status: ('A' for Active; 'I' for Inactive)
REMARK    1  A    between atoms: CB_1  and  CA_2
REMARK    2  A    between atoms: CA_2  and  N_3
REMARK    3  A    between atoms: CA_2  and  C_15
REMARK                            x       y       z     vdW  Elec       q    Type
REMARK                         _______ _______ _______ _____ _____    ______ ____
ROOT
ATOM      1  N   ALA A   1       1.071  -0.197   0.000  0.00  0.00    +0.000 N 
ATOM      2  C   UNK A   0       0.308  -1.328  -0.023  0.00  0.00    +0.000 C 
ATOM      3  N   UNK A   0       0.807  -2.523  -0.177  0.00  0.00    +0.000 NA
ATOM      4  S   UNK A   0      -0.365  -3.656  -0.168  0.00  0.00    +0.000 S 
ATOM      5  O   UNK A   0      -0.332  -4.430   1.056  0.00  0.00    +0.000 OA
ATOM      6  O   UNK A   0      -0.486  -4.285  -1.468  0.00  0.00    +0.000 OA
ATOM      7  C   UNK A   0      -1.690  -2.542  -0.020  0.00  0.00    +0.000 A 
ATOM      8  C   UNK A   0      -3.040  -2.822  -0.077  0.00  0.00    +0.000 A 
ATOM      9  C   UNK A   0      -3.908  -1.732  -0.032  0.00  0.00    +0.000 A 
ATOM     10  C   UNK A   0      -3.403  -0.419   0.061  0.00  0.00    +0.000 A 
ATOM     11  C   UNK A   0      -2.022  -0.173   0.112  0.00  0.00    +0.000 A 
ATOM     12  C   UNK A   0      -1.172  -1.265   0.075  0.00  0.00    +0.000 A 
ATOM     13  H   ALA A   1       0.781   0.698   0.405  0.00  0.00    +0.000 HD
ENDROOT
BRANCH   1  15
ATOM     14  CB  ALA A   1       2.166  -0.052  -2.171  0.00  0.00    +0.000 C 
ATOM     15  CA  ALA A   1       2.378  -0.066  -0.660  0.00  0.00    +0.000 C 
BRANCH  15  16
ATOM     16  C   ALA A   1       3.065   1.286  -0.284  0.00  0.00    +0.000 C 
ATOM     17  O   ALA A   1       4.222   1.474  -0.759  0.00  0.00    +0.000 OA
ATOM     18  OXT ALA A   1       2.361   2.046   0.455  0.00  0.00    +0.000 OA
ENDBRANCH  15  16
ENDBRANCH   1  15
TORSDOF 2
