MODEL 1
REMARK VINA RESULT:      -6.6      0.000      0.000
REMARK  Name = 
REMARK  3 active torsions:
REMARK  status: ('A' for Active; 'I' for Inactive)
REMARK    1  A    between atoms: CB_1  and  CA_2
REMARK    2  A    between atoms: CA_2  and  N_3
REMARK    3  A    between atoms: CA_2  and  C_15
REMARK                            x       y       z     vdW  Elec       q    Type
REMARK                         _______ _______ _______ _____ _____    ______ ____
ROOT
ATOM      1  N   ALA A   1       2.778 -11.347   6.792  0.00  0.00    +0.000 N 
ATOM      2  C   UNK A   0       1.508 -11.847   6.776  0.00  0.00    +0.000 C 
ATOM      3  N   UNK A   0       1.180 -12.983   7.326  0.00  0.00    +0.000 NA
ATOM      4  S   UNK A   0      -0.406 -13.298   7.125  0.00  0.00    +0.000 S 
ATOM      5  O   UNK A   0      -1.129 -13.148   8.372  0.00  0.00    +0.000 OA
ATOM      6  O   UNK A   0      -0.601 -14.445   6.261  0.00  0.00    +0.000 OA
ATOM      7  C   UNK A   0      -0.751 -11.884   6.175  0.00  0.00    +0.000 A 
ATOM      8  C   UNK A   0      -1.930 -11.563   5.535  0.00  0.00    +0.000 A 
ATOM      9  C   UNK A   0      -1.922 -10.413   4.746  0.00  0.00    +0.000 A 
ATOM     10  C   UNK A   0      -0.750  -9.640   4.622  0.00  0.00    +0.000 A 
ATOM     11  C   UNK A   0       0.434 -10.001   5.285  0.00  0.00    +0.000 A 
ATOM     12  C   UNK A   0       0.409 -11.140   6.072  0.00  0.00    +0.000 A 
ATOM     13  H   ALA A   1       3.023 -10.363   6.651  0.00  0.00    +0.000 HD
ENDROOT
BRANCH   1  15
ATOM     14  CB  ALA A   1       4.603 -12.326   5.510  0.00  0.00    +0.000 C 
ATOM     15  CA  ALA A   1       3.991 -12.172   6.899  0.00  0.00    +0.000 C 
BRANCH  15  16
ATOM     16  C   ALA A   1       5.065 -11.477   7.796  0.00  0.00    +0.000 C 
ATOM     17  O   ALA A   1       5.430 -10.321   7.435  0.00  0.00    +0.000 OA
ATOM     18  OXT ALA A   1       5.438 -12.166   8.799  0.00  0.00    +0.000 OA
ENDBRANCH  15  16
ENDBRANCH   1  15
TORSDOF 2
ENDMDL
MODEL 2
REMARK VINA RESULT:      -6.2      2.641      4.895
REMARK  Name = 
REMARK  3 active torsions:
REMARK  status: ('A' for Active; 'I' for Inactive)
REMARK    1  A    between atoms: CB_1  and  CA_2
REMARK    2  A    between atoms: CA_2  and  N_3
REMARK    3  A    between atoms: CA_2  and  C_15
REMARK                            x       y       z     vdW  Elec       q    Type
REMARK                         _______ _______ _______ _____ _____    ______ ____
ROOT
ATOM      1  N   ALA A   1      -0.603 -14.041   7.455  0.00  0.00    +0.000 N 
ATOM      2  C   UNK A   0       0.145 -12.977   7.044  0.00  0.00    +0.000 C 
ATOM      3  N   UNK A   0       1.369 -12.766   7.444  0.00  0.00    +0.000 NA
ATOM      4  S   UNK A   0       1.981 -11.410   6.779  0.00  0.00    +0.000 S 
ATOM      5  O   UNK A   0       2.979 -11.726   5.777  0.00  0.00    +0.000 OA
ATOM      6  O   UNK A   0       2.205 -10.394   7.788  0.00  0.00    +0.000 OA
ATOM      7  C   UNK A   0       0.537 -10.963   5.923  0.00  0.00    +0.000 A 
ATOM      8  C   UNK A   0       0.298  -9.801   5.217  0.00  0.00    +0.000 A 
ATOM      9  C   UNK A   0      -0.986  -9.635   4.701  0.00  0.00    +0.000 A 
ATOM     10  C   UNK A   0      -1.974 -10.618   4.911  0.00  0.00    +0.000 A 
ATOM     11  C   UNK A   0      -1.695 -11.785   5.639  0.00  0.00    +0.000 A 
ATOM     12  C   UNK A   0      -0.414 -11.942   6.138  0.00  0.00    +0.000 A 
ATOM     13  H   ALA A   1      -1.422 -14.408   6.961  0.00  0.00    +0.000 HD
ENDROOT
BRANCH   1  15
ATOM     14  CB  ALA A   1      -0.794 -13.805   9.872  0.00  0.00    +0.000 C 
ATOM     15  CA  ALA A   1      -0.412 -14.744   8.731  0.00  0.00    +0.000 C 
BRANCH  15  16
ATOM     16  C   ALA A   1      -1.350 -15.990   8.834  0.00  0.00    +0.000 C 
ATOM     17  O   ALA A   1      -2.294 -16.047   7.994  0.00  0.00    +0.000 OA
ATOM     18  OXT ALA A   1      -1.037 -16.810   9.755  0.00  0.00    +0.000 OA
ENDBRANCH  15  16
ENDBRANCH   1  15
TORSDOF 2
ENDMDL
MODEL 3
REMARK VINA RESULT:      -6.0      5.844      8.339
REMARK  Name = 
REMARK  3 active torsions:
REMARK  status: ('A' for Active; 'I' for Inactive)
REMARK    1  A    between atoms: CB_1  and  CA_2
REMARK    2  A    between atoms: CA_2  and  N_3
REMARK    3  A    between atoms: CA_2  and  C_15
REMARK                            x       y       z     vdW  Elec       q    Type
REMARK                         _______ _______ _______ _____ _____    ______ ____
ROOT
ATOM      1  N   ALA A   1      -3.303 -16.846   7.555  0.00  0.00    +0.000 N 
ATOM      2  C   UNK A   0      -2.311 -16.202   8.236  0.00  0.00    +0.000 C 
ATOM      3  N   UNK A   0      -1.706 -15.140   7.781  0.00  0.00    +0.000 NA
ATOM      4  S   UNK A   0      -0.569 -14.618   8.826  0.00  0.00    +0.000 S 
ATOM      5  O   UNK A   0      -0.983 -13.394   9.479  0.00  0.00    +0.000 OA
ATOM      6  O   UNK A   0       0.759 -14.775   8.265  0.00  0.00    +0.000 OA
ATOM      7  C   UNK A   0      -0.784 -15.899   9.980  0.00  0.00    +0.000 A 
ATOM      8  C   UNK A   0      -0.028 -16.159  11.104  0.00  0.00    +0.000 A 
ATOM      9  C   UNK A   0      -0.344 -17.314  11.818  0.00  0.00    +0.000 A 
ATOM     10  C   UNK A   0      -1.386 -18.160  11.385  0.00  0.00    +0.000 A 
ATOM     11  C   UNK A   0      -2.130 -17.864  10.233  0.00  0.00    +0.000 A 
ATOM     12  C   UNK A   0      -1.811 -16.710   9.539  0.00  0.00    +0.000 A 
ATOM     13  H   ALA A   1      -3.993 -17.474   7.978  0.00  0.00    +0.000 HD
ENDROOT
BRANCH   1  15
ATOM     14  CB  ALA A   1      -3.284 -18.244   5.560  0.00  0.00    +0.000 C 
ATOM     15  CA  ALA A   1      -3.453 -16.824   6.093  0.00  0.00    +0.000 C 
BRANCH  15  16
ATOM     16  C   ALA A   1      -4.884 -16.351   5.681  0.00  0.00    +0.000 C 
ATOM     17  O   ALA A   1      -5.827 -16.693   6.452  0.00  0.00    +0.000 OA
ATOM     18  OXT ALA A   1      -4.923 -15.661   4.613  0.00  0.00    +0.000 OA
ENDBRANCH  15  16
ENDBRANCH   1  15
TORSDOF 2
ENDMDL
MODEL 4
REMARK VINA RESULT:      -5.7      4.170      5.065
REMARK  Name = 
REMARK  3 active torsions:
REMARK  status: ('A' for Active; 'I' for Inactive)
REMARK    1  A    between atoms: CB_1  and  CA_2
REMARK    2  A    between atoms: CA_2  and  N_3
REMARK    3  A    between atoms: CA_2  and  C_15
REMARK                            x       y       z     vdW  Elec       q    Type
REMARK                         _______ _______ _______ _____ _____    ______ ____
ROOT
ATOM      1  N   ALA A   1       0.415 -10.286   3.412  0.00  0.00    +0.000 N 
ATOM      2  C   UNK A   0      -0.622 -10.889   2.762  0.00  0.00    +0.000 C 
ATOM      3  N   UNK A   0      -0.496 -11.466   1.599  0.00  0.00    +0.000 NA
ATOM      4  S   UNK A   0      -1.917 -12.083   1.091  0.00  0.00    +0.000 S 
ATOM      5  O   UNK A   0      -1.912 -13.530   1.162  0.00  0.00    +0.000 OA
ATOM      6  O   UNK A   0      -2.399 -11.376  -0.079  0.00  0.00    +0.000 OA
ATOM      7  C   UNK A   0      -2.851 -11.519   2.443  0.00  0.00    +0.000 A 
ATOM      8  C   UNK A   0      -4.219 -11.586   2.613  0.00  0.00    +0.000 A 
ATOM      9  C   UNK A   0      -4.740 -10.967   3.748  0.00  0.00    +0.000 A 
ATOM     10  C   UNK A   0      -3.888 -10.308   4.658  0.00  0.00    +0.000 A 
ATOM     11  C   UNK A   0      -2.501 -10.256   4.449  0.00  0.00    +0.000 A 
ATOM     12  C   UNK A   0      -1.996 -10.882   3.322  0.00  0.00    +0.000 A 
ATOM     13  H   ALA A   1       0.444 -10.094   4.418  0.00  0.00    +0.000 HD
ENDROOT
BRANCH   1  15
ATOM     14  CB  ALA A   1       1.546  -8.196   2.875  0.00  0.00    +0.000 C 
ATOM     15  CA  ALA A   1       1.593  -9.716   2.743  0.00  0.00    +0.000 C 
BRANCH  15  16
ATOM     16  C   ALA A   1       2.914 -10.192   3.428  0.00  0.00    +0.000 C 
ATOM     17  O   ALA A   1       3.975  -9.614   3.054  0.00  0.00    +0.000 OA
ATOM     18  OXT ALA A   1       2.755 -11.108   4.297  0.00  0.00    +0.000 OA
ENDBRANCH  15  16
ENDBRANCH   1  15
TORSDOF 2
ENDMDL
MODEL 5
REMARK VINA RESULT:      -5.5      7.022      8.777
REMARK  Name = 
REMARK  3 active torsions:
REMARK  status: ('A' for Active; 'I' for Inactive)
REMARK    1  A    between atoms: CB_1  and  CA_2
REMARK    2  A    between atoms: CA_2  and  N_3
REMARK    3  A    between atoms: CA_2  and  C_15
REMARK                            x       y       z     vdW  Elec       q    Type
REMARK                         _______ _______ _______ _____ _____    ______ ____
ROOT
ATOM      1  N   ALA A   1      -4.525 -13.906   2.323  0.00  0.00    +0.000 N 
ATOM      2  C   UNK A   0      -4.393 -14.916   3.231  0.00  0.00    +0.000 C 
ATOM      3  N   UNK A   0      -4.875 -14.855   4.442  0.00  0.00    +0.000 NA
ATOM      4  S   UNK A   0      -4.543 -16.215   5.277  0.00  0.00    +0.000 S 
ATOM      5  O   UNK A   0      -5.735 -17.016   5.464  0.00  0.00    +0.000 OA
ATOM      6  O   UNK A   0      -3.625 -15.943   6.365  0.00  0.00    +0.000 OA
ATOM      7  C   UNK A   0      -3.621 -16.978   4.017  0.00  0.00    +0.000 A 
ATOM      8  C   UNK A   0      -2.905 -18.155   4.088  0.00  0.00    +0.000 A 
ATOM      9  C   UNK A   0      -2.161 -18.505   2.962  0.00  0.00    +0.000 A 
ATOM     10  C   UNK A   0      -2.155 -17.675   1.823  0.00  0.00    +0.000 A 
ATOM     11  C   UNK A   0      -2.893 -16.481   1.789  0.00  0.00    +0.000 A 
ATOM     12  C   UNK A   0      -3.633 -16.151   2.911  0.00  0.00    +0.000 A 
ATOM     13  H   ALA A   1      -4.438 -14.015   1.308  0.00  0.00    +0.000 HD
ENDROOT
BRANCH   1  15
ATOM     14  CB  ALA A   1      -3.517 -11.699   2.116  0.00  0.00    +0.000 C 
ATOM     15  CA  ALA A   1      -4.694 -12.490   2.678  0.00  0.00    +0.000 C 
BRANCH  15  16
ATOM     16  C   ALA A   1      -5.989 -11.899   2.034  0.00  0.00    +0.000 C 
ATOM     17  O   ALA A   1      -6.635 -11.072   2.739  0.00  0.00    +0.000 OA
ATOM     18  OXT ALA A   1      -6.231 -12.321   0.858  0.00  0.00    +0.000 OA
ENDBRANCH  15  16
ENDBRANCH   1  15
TORSDOF 2
ENDMDL
MODEL 6
REMARK VINA RESULT:      -5.5      3.515      6.393
REMARK  Name = 
REMARK  3 active torsions:
REMARK  status: ('A' for Active; 'I' for Inactive)
REMARK    1  A    between atoms: CB_1  and  CA_2
REMARK    2  A    between atoms: CA_2  and  N_3
REMARK    3  A    between atoms: CA_2  and  C_15
REMARK                            x       y       z     vdW  Elec       q    Type
REMARK                         _______ _______ _______ _____ _____    ______ ____
ROOT
ATOM      1  N   ALA A   1      -3.128 -15.047   4.788  0.00  0.00    +0.000 N 
ATOM      2  C   UNK A   0      -2.168 -14.251   5.341  0.00  0.00    +0.000 C 
ATOM      3  N   UNK A   0      -1.357 -14.656   6.279  0.00  0.00    +0.000 NA
ATOM      4  S   UNK A   0      -0.336 -13.468   6.729  0.00  0.00    +0.000 S 
ATOM      5  O   UNK A   0       1.008 -13.729   6.257  0.00  0.00    +0.000 OA
ATOM      6  O   UNK A   0      -0.601 -13.047   8.090  0.00  0.00    +0.000 OA
ATOM      7  C   UNK A   0      -1.006 -12.251   5.684  0.00  0.00    +0.000 A 
ATOM      8  C   UNK A   0      -0.686 -10.910   5.636  0.00  0.00    +0.000 A 
ATOM      9  C   UNK A   0      -1.443 -10.117   4.774  0.00  0.00    +0.000 A 
ATOM     10  C   UNK A   0      -2.481 -10.683   4.007  0.00  0.00    +0.000 A 
ATOM     11  C   UNK A   0      -2.780 -12.052   4.087  0.00  0.00    +0.000 A 
ATOM     12  C   UNK A   0      -2.016 -12.829   4.940  0.00  0.00    +0.000 A 
ATOM     13  H   ALA A   1      -3.571 -14.887   3.878  0.00  0.00    +0.000 HD
ENDROOT
BRANCH   1  15
ATOM     14  CB  ALA A   1      -5.255 -16.159   5.203  0.00  0.00    +0.000 C 
ATOM     15  CA  ALA A   1      -3.754 -16.187   5.473  0.00  0.00    +0.000 C 
BRANCH  15  16
ATOM     16  C   ALA A   1      -3.216 -17.543   4.913  0.00  0.00    +0.000 C 
ATOM     17  O   ALA A   1      -3.084 -17.614   3.657  0.00  0.00    +0.000 OA
ATOM     18  OXT ALA A   1      -2.964 -18.417   5.803  0.00  0.00    +0.000 OA
ENDBRANCH  15  16
ENDBRANCH   1  15
TORSDOF 2
ENDMDL
MODEL 7
REMARK VINA RESULT:      -5.4      4.794      6.296
REMARK  Name = 
REMARK  3 active torsions:
REMARK  status: ('A' for Active; 'I' for Inactive)
REMARK    1  A    between atoms: CB_1  and  CA_2
REMARK    2  A    between atoms: CA_2  and  N_3
REMARK    3  A    between atoms: CA_2  and  C_15
REMARK                            x       y       z     vdW  Elec       q    Type
REMARK                         _______ _______ _______ _____ _____    ______ ____
ROOT
ATOM      1  N   ALA A   1      -2.190 -14.740   5.516  0.00  0.00    +0.000 N 
ATOM      2  C   UNK A   0      -2.447 -13.494   5.025  0.00  0.00    +0.000 C 
ATOM      3  N   UNK A   0      -3.464 -13.226   4.252  0.00  0.00    +0.000 NA
ATOM      4  S   UNK A   0      -3.485 -11.652   3.832  0.00  0.00    +0.000 S 
ATOM      5  O   UNK A   0      -4.554 -10.946   4.508  0.00  0.00    +0.000 OA
ATOM      6  O   UNK A   0      -3.241 -11.492   2.412  0.00  0.00    +0.000 OA
ATOM      7  C   UNK A   0      -2.011 -11.228   4.649  0.00  0.00    +0.000 A 
ATOM      8  C   UNK A   0      -1.339 -10.024   4.608  0.00  0.00    +0.000 A 
ATOM      9  C   UNK A   0      -0.116  -9.967   5.274  0.00  0.00    +0.000 A 
ATOM     10  C   UNK A   0       0.388 -11.101   5.944  0.00  0.00    +0.000 A 
ATOM     11  C   UNK A   0      -0.324 -12.311   5.959  0.00  0.00    +0.000 A 
ATOM     12  C   UNK A   0      -1.541 -12.351   5.300  0.00  0.00    +0.000 A 
ATOM     13  H   ALA A   1      -1.610 -14.939   6.336  0.00  0.00    +0.000 HD
ENDROOT
BRANCH   1  15
ATOM     14  CB  ALA A   1      -1.375 -16.738   4.386  0.00  0.00    +0.000 C 
ATOM     15  CA  ALA A   1      -2.614 -15.990   4.868  0.00  0.00    +0.000 C 
BRANCH  15  16
ATOM     16  C   ALA A   1      -3.347 -16.928   5.881  0.00  0.00    +0.000 C 
ATOM     17  O   ALA A   1      -3.946 -16.356   6.836  0.00  0.00    +0.000 OA
ATOM     18  OXT ALA A   1      -3.257 -18.168   5.608  0.00  0.00    +0.000 OA
ENDBRANCH  15  16
ENDBRANCH   1  15
TORSDOF 2
ENDMDL
MODEL 8
REMARK VINA RESULT:      -5.4     23.552     25.902
REMARK  Name = 
REMARK  3 active torsions:
REMARK  status: ('A' for Active; 'I' for Inactive)
REMARK    1  A    between atoms: CB_1  and  CA_2
REMARK    2  A    between atoms: CA_2  and  N_3
REMARK    3  A    between atoms: CA_2  and  C_15
REMARK                            x       y       z     vdW  Elec       q    Type
REMARK                         _______ _______ _______ _____ _____    ______ ____
ROOT
ATOM      1  N   ALA A   1     -21.108 -15.313  16.459  0.00  0.00    +0.000 N 
ATOM      2  C   UNK A   0     -22.170 -15.323  15.602  0.00  0.00    +0.000 C 
ATOM      3  N   UNK A   0     -22.051 -15.135  14.317  0.00  0.00    +0.000 NA
ATOM      4  S   UNK A   0     -23.502 -15.198  13.576  0.00  0.00    +0.000 S 
ATOM      5  O   UNK A   0     -23.639 -16.413  12.800  0.00  0.00    +0.000 OA
ATOM      6  O   UNK A   0     -23.865 -13.901  13.039  0.00  0.00    +0.000 OA
ATOM      7  C   UNK A   0     -24.433 -15.422  15.026  0.00  0.00    +0.000 A 
ATOM      8  C   UNK A   0     -25.807 -15.433  15.154  0.00  0.00    +0.000 A 
ATOM      9  C   UNK A   0     -26.314 -15.531  16.449  0.00  0.00    +0.000 A 
ATOM     10  C   UNK A   0     -25.442 -15.606  17.555  0.00  0.00    +0.000 A 
ATOM     11  C   UNK A   0     -24.049 -15.587  17.385  0.00  0.00    +0.000 A 
ATOM     12  C   UNK A   0     -23.560 -15.498  16.093  0.00  0.00    +0.000 A 
ATOM     13  H   ALA A   1     -21.103 -15.739  17.391  0.00  0.00    +0.000 HD
ENDROOT
BRANCH   1  15
ATOM     14  CB  ALA A   1     -20.088 -13.102  16.475  0.00  0.00    +0.000 C 
ATOM     15  CA  ALA A   1     -19.854 -14.587  16.216  0.00  0.00    +0.000 C 
BRANCH  15  16
ATOM     16  C   ALA A   1     -18.735 -15.050  17.204  0.00  0.00    +0.000 C 
ATOM     17  O   ALA A   1     -19.113 -15.762  18.179  0.00  0.00    +0.000 OA
ATOM     18  OXT ALA A   1     -17.565 -14.657  16.896  0.00  0.00    +0.000 OA
ENDBRANCH  15  16
ENDBRANCH   1  15
TORSDOF 2
ENDMDL
MODEL 9
REMARK VINA RESULT:      -5.2     15.392     17.728
REMARK  Name = 
REMARK  3 active torsions:
REMARK  status: ('A' for Active; 'I' for Inactive)
REMARK    1  A    between atoms: CB_1  and  CA_2
REMARK    2  A    between atoms: CA_2  and  N_3
REMARK    3  A    between atoms: CA_2  and  C_15
REMARK                            x       y       z     vdW  Elec       q    Type
REMARK                         _______ _______ _______ _____ _____    ______ ____
ROOT
ATOM      1  N   ALA A   1     -16.407 -12.385   6.347  0.00  0.00    +0.000 N 
ATOM      2  C   UNK A   0     -15.498 -12.246   5.338  0.00  0.00    +0.000 C 
ATOM      3  N   UNK A   0     -15.499 -11.239   4.510  0.00  0.00    +0.000 NA
ATOM      4  S   UNK A   0     -14.294 -11.372   3.420  0.00  0.00    +0.000 S 
ATOM      5  O   UNK A   0     -13.245 -10.408   3.682  0.00  0.00    +0.000 OA
ATOM      6  O   UNK A   0     -14.824 -11.583   2.087  0.00  0.00    +0.000 OA
ATOM      7  C   UNK A   0     -13.713 -12.910   3.982  0.00  0.00    +0.000 A 
ATOM      8  C   UNK A   0     -12.741 -13.706   3.411  0.00  0.00    +0.000 A 
ATOM      9  C   UNK A   0     -12.525 -14.950   4.002  0.00  0.00    +0.000 A 
ATOM     10  C   UNK A   0     -13.281 -15.351   5.122  0.00  0.00    +0.000 A 
ATOM     11  C   UNK A   0     -14.265 -14.515   5.672  0.00  0.00    +0.000 A 
ATOM     12  C   UNK A   0     -14.463 -13.280   5.081  0.00  0.00    +0.000 A 
ATOM     13  H   ALA A   1     -16.275 -12.969   7.178  0.00  0.00    +0.000 HD
ENDROOT
BRANCH   1  15
ATOM     14  CB  ALA A   1     -18.761 -12.914   6.013  0.00  0.00    +0.000 C 
ATOM     15  CA  ALA A   1     -17.758 -11.808   6.329  0.00  0.00    +0.000 C 
BRANCH  15  16
ATOM     16  C   ALA A   1     -18.142 -11.232   7.730  0.00  0.00    +0.000 C 
ATOM     17  O   ALA A   1     -18.674 -12.045   8.540  0.00  0.00    +0.000 OA
ATOM     18  OXT ALA A   1     -17.859 -10.001   7.888  0.00  0.00    +0.000 OA
ENDBRANCH  15  16
ENDBRANCH   1  15
TORSDOF 2
ENDMDL
