REMARK  Name = 
REMARK  5 active torsions:
REMARK  status: ('A' for Active; 'I' for Inactive)
REMARK    1  A    between atoms: C_1  and  N_2
REMARK    2  A    between atoms: C_4  and  C_5
REMARK    3  A    between atoms: N_7  and  C_8
REMARK    4  A    between atoms: N_11  and  C_12
REMARK    5  A    between atoms: N_15  and  C_16
REMARK                            x       y       z     vdW  Elec       q    Type
REMARK                         _______ _______ _______ _____ _____    ______ ____
ROOT
ATOM      1  C   UNL     1       2.433   0.959  -0.282  0.00  0.00    +0.000 C 
ATOM      2  N   UNL     1       1.213   0.195  -0.471  0.00  0.00    +0.000 N 
ATOM      3  N   UNL     1       1.291  -1.218  -0.482  0.00  0.00    +0.000 NA
ATOM      4  C   UNL     1       0.093  -1.844   0.093  0.00  0.00    +0.000 C 
ATOM      5  N   UNL     1      -1.097  -1.373  -0.630  0.00  0.00    +0.000 NA
ATOM      6  N   UNL     1      -1.129   0.044  -0.841  0.00  0.00    +0.000 N 
ATOM      7  C   UNL     1      -2.434   0.659  -1.018  0.00  0.00    +0.000 C 
ATOM      8  C   UNL     1       0.004   0.866  -0.729  0.00  0.00    +0.000 C 
ATOM      9  O   UNL     1      -0.059   2.096  -0.773  0.00  0.00    +0.000 OA
ATOM     10  H   UNL     1       2.110  -1.522   0.043  0.00  0.00    +0.000 HD
ATOM     11  H   UNL     1      -1.899  -1.608  -0.041  0.00  0.00    +0.000 HD
ENDROOT
BRANCH   4  12
ATOM     12  C   UNL     1       0.017  -1.797   1.692  0.00  0.00    +0.000 C 
ATOM     13  N   UNL     1       0.016  -0.468   2.318  0.00  0.00    +0.000 NA
ATOM     14  N   UNL     1      -1.276   0.140   2.373  0.00  0.00    +0.000 N 
ATOM     15  C   UNL     1      -1.332   1.579   2.567  0.00  0.00    +0.000 C 
ATOM     16  C   UNL     1      -2.464  -0.597   2.429  0.00  0.00    +0.000 C 
ATOM     17  O   UNL     1      -3.566  -0.064   2.564  0.00  0.00    +0.000 OA
ATOM     18  N   UNL     1      -2.325  -1.988   2.243  0.00  0.00    +0.000 N 
ATOM     19  C   UNL     1      -3.477  -2.857   2.414  0.00  0.00    +0.000 C 
ATOM     20  N   UNL     1      -1.048  -2.615   2.283  0.00  0.00    +0.000 NA
ATOM     21  H   UNL     1       0.597   0.123   1.718  0.00  0.00    +0.000 HD
ATOM     22  H   UNL     1      -1.100  -3.502   1.785  0.00  0.00    +0.000 HD
ENDBRANCH   4  12
TORSDOF 1
