MODEL 1
REMARK VINA RESULT:      -6.0      0.000      0.000
REMARK  Name = 
REMARK  5 active torsions:
REMARK  status: ('A' for Active; 'I' for Inactive)
REMARK    1  A    between atoms: C_1  and  N_2
REMARK    2  A    between atoms: C_4  and  C_5
REMARK    3  A    between atoms: N_7  and  C_8
REMARK    4  A    between atoms: N_11  and  C_12
REMARK    5  A    between atoms: N_15  and  C_16
REMARK                            x       y       z     vdW  Elec       q    Type
REMARK                         _______ _______ _______ _____ _____    ______ ____
ROOT
ATOM      1  C   UNL     1      -6.257 -17.029   5.761  0.00  0.00    +0.000 C 
ATOM      2  N   UNL     1      -4.944 -16.432   5.926  0.00  0.00    +0.000 N 
ATOM      3  N   UNL     1      -4.270 -16.604   7.159  0.00  0.00    +0.000 NA
ATOM      4  C   UNL     1      -2.814 -16.693   6.988  0.00  0.00    +0.000 C 
ATOM      5  N   UNL     1      -2.333 -15.496   6.283  0.00  0.00    +0.000 NA
ATOM      6  N   UNL     1      -3.113 -15.142   5.134  0.00  0.00    +0.000 N 
ATOM      7  C   UNL     1      -2.449 -14.375   4.093  0.00  0.00    +0.000 C 
ATOM      8  C   UNL     1      -4.410 -15.627   4.904  0.00  0.00    +0.000 C 
ATOM      9  O   UNL     1      -5.017 -15.431   3.849  0.00  0.00    +0.000 OA
ATOM     10  H   UNL     1      -4.603 -17.451   7.619  0.00  0.00    +0.000 HD
ATOM     11  H   UNL     1      -1.392 -15.720   5.951  0.00  0.00    +0.000 HD
ENDROOT
BRANCH   4  12
ATOM     12  C   UNL     1      -2.291 -18.101   6.433  0.00  0.00    +0.000 C 
ATOM     13  N   UNL     1      -2.740 -18.494   5.091  0.00  0.00    +0.000 NA
ATOM     14  N   UNL     1      -1.953 -17.939   4.036  0.00  0.00    +0.000 N 
ATOM     15  C   UNL     1      -2.540 -17.905   2.707  0.00  0.00    +0.000 C 
ATOM     16  C   UNL     1      -0.603 -17.601   4.188  0.00  0.00    +0.000 C 
ATOM     17  O   UNL     1       0.088 -17.205   3.249  0.00  0.00    +0.000 OA
ATOM     18  N   UNL     1      -0.105 -17.670   5.505  0.00  0.00    +0.000 N 
ATOM     19  C   UNL     1       1.313 -17.468   5.752  0.00  0.00    +0.000 C 
ATOM     20  N   UNL     1      -0.843 -18.308   6.542  0.00  0.00    +0.000 NA
ATOM     21  H   UNL     1      -3.684 -18.112   4.990  0.00  0.00    +0.000 HD
ATOM     22  H   UNL     1      -0.524 -17.951   7.441  0.00  0.00    +0.000 HD
ENDBRANCH   4  12
TORSDOF 1
ENDMDL
MODEL 2
REMARK VINA RESULT:      -5.7      1.199      4.775
REMARK  Name = 
REMARK  5 active torsions:
REMARK  status: ('A' for Active; 'I' for Inactive)
REMARK    1  A    between atoms: C_1  and  N_2
REMARK    2  A    between atoms: C_4  and  C_5
REMARK    3  A    between atoms: N_7  and  C_8
REMARK    4  A    between atoms: N_11  and  C_12
REMARK    5  A    between atoms: N_15  and  C_16
REMARK                            x       y       z     vdW  Elec       q    Type
REMARK                         _______ _______ _______ _____ _____    ______ ____
ROOT
ATOM      1  C   UNL     1       0.866 -18.037   8.537  0.00  0.00    +0.000 C 
ATOM      2  N   UNL     1       0.068 -18.087   7.326  0.00  0.00    +0.000 N 
ATOM      3  N   UNL     1      -1.196 -18.722   7.370  0.00  0.00    +0.000 NA
ATOM      4  C   UNL     1      -2.170 -18.084   6.474  0.00  0.00    +0.000 C 
ATOM      5  N   UNL     1      -1.633 -18.067   5.106  0.00  0.00    +0.000 NA
ATOM      6  N   UNL     1      -0.271 -17.631   5.019  0.00  0.00    +0.000 N 
ATOM      7  C   UNL     1       0.162 -17.056   3.756  0.00  0.00    +0.000 C 
ATOM      8  C   UNL     1       0.598 -17.590   6.121  0.00  0.00    +0.000 C 
ATOM      9  O   UNL     1       1.720 -17.083   6.066  0.00  0.00    +0.000 OA
ATOM     10  H   UNL     1      -1.558 -18.703   8.323  0.00  0.00    +0.000 HD
ATOM     11  H   UNL     1      -2.199 -17.391   4.587  0.00  0.00    +0.000 HD
ENDROOT
BRANCH   4  12
ATOM     12  C   UNL     1      -2.773 -16.704   7.018  0.00  0.00    +0.000 C 
ATOM     13  N   UNL     1      -2.270 -15.470   6.401  0.00  0.00    +0.000 NA
ATOM     14  N   UNL     1      -2.933 -15.125   5.183  0.00  0.00    +0.000 N 
ATOM     15  C   UNL     1      -2.256 -14.200   4.290  0.00  0.00    +0.000 C 
ATOM     16  C   UNL     1      -4.255 -15.489   4.905  0.00  0.00    +0.000 C 
ATOM     17  O   UNL     1      -4.845 -15.112   3.892  0.00  0.00    +0.000 OA
ATOM     18  N   UNL     1      -4.846 -16.380   5.825  0.00  0.00    +0.000 N 
ATOM     19  C   UNL     1      -6.254 -16.715   5.701  0.00  0.00    +0.000 C 
ATOM     20  N   UNL     1      -4.238 -16.655   7.082  0.00  0.00    +0.000 NA
ATOM     21  H   UNL     1      -1.292 -15.656   6.164  0.00  0.00    +0.000 HD
ATOM     22  H   UNL     1      -4.586 -17.548   7.428  0.00  0.00    +0.000 HD
ENDBRANCH   4  12
TORSDOF 1
ENDMDL
MODEL 3
REMARK VINA RESULT:      -5.7      3.857      5.689
REMARK  Name = 
REMARK  5 active torsions:
REMARK  status: ('A' for Active; 'I' for Inactive)
REMARK    1  A    between atoms: C_1  and  N_2
REMARK    2  A    between atoms: C_4  and  C_5
REMARK    3  A    between atoms: N_7  and  C_8
REMARK    4  A    between atoms: N_11  and  C_12
REMARK    5  A    between atoms: N_15  and  C_16
REMARK                            x       y       z     vdW  Elec       q    Type
REMARK                         _______ _______ _______ _____ _____    ______ ____
ROOT
ATOM      1  C   UNL     1      -4.879 -12.790   3.103  0.00  0.00    +0.000 C 
ATOM      2  N   UNL     1      -3.688 -13.478   3.570  0.00  0.00    +0.000 N 
ATOM      3  N   UNL     1      -2.422 -12.919   3.275  0.00  0.00    +0.000 NA
ATOM      4  C   UNL     1      -1.445 -13.164   4.344  0.00  0.00    +0.000 C 
ATOM      5  N   UNL     1      -1.343 -14.610   4.587  0.00  0.00    +0.000 NA
ATOM      6  N   UNL     1      -2.608 -15.277   4.683  0.00  0.00    +0.000 N 
ATOM      7  C   UNL     1      -2.650 -16.515   5.444  0.00  0.00    +0.000 C 
ATOM      8  C   UNL     1      -3.810 -14.719   4.219  0.00  0.00    +0.000 C 
ATOM      9  O   UNL     1      -4.909 -15.235   4.431  0.00  0.00    +0.000 OA
ATOM     10  H   UNL     1      -2.514 -11.914   3.132  0.00  0.00    +0.000 HD
ATOM     11  H   UNL     1      -0.879 -14.714   5.492  0.00  0.00    +0.000 HD
ENDROOT
BRANCH   4  12
ATOM     12  C   UNL     1      -1.623 -12.238   5.637  0.00  0.00    +0.000 C 
ATOM     13  N   UNL     1      -0.929 -12.663   6.860  0.00  0.00    +0.000 NA
ATOM     14  N   UNL     1       0.438 -12.249   6.918  0.00  0.00    +0.000 N 
ATOM     15  C   UNL     1       1.313 -12.954   7.839  0.00  0.00    +0.000 C 
ATOM     16  C   UNL     1       0.915 -11.103   6.274  0.00  0.00    +0.000 C 
ATOM     17  O   UNL     1       2.075 -10.708   6.403  0.00  0.00    +0.000 OA
ATOM     18  N   UNL     1       0.003 -10.469   5.406  0.00  0.00    +0.000 N 
ATOM     19  C   UNL     1       0.354  -9.199   4.792  0.00  0.00    +0.000 C 
ATOM     20  N   UNL     1      -1.379 -10.809   5.411  0.00  0.00    +0.000 NA
ATOM     21  H   UNL     1      -0.929 -13.686   6.839  0.00  0.00    +0.000 HD
ATOM     22  H   UNL     1      -1.788 -10.540   4.517  0.00  0.00    +0.000 HD
ENDBRANCH   4  12
TORSDOF 1
ENDMDL
MODEL 4
REMARK VINA RESULT:      -5.6      3.155      5.005
REMARK  Name = 
REMARK  5 active torsions:
REMARK  status: ('A' for Active; 'I' for Inactive)
REMARK    1  A    between atoms: C_1  and  N_2
REMARK    2  A    between atoms: C_4  and  C_5
REMARK    3  A    between atoms: N_7  and  C_8
REMARK    4  A    between atoms: N_11  and  C_12
REMARK    5  A    between atoms: N_15  and  C_16
REMARK                            x       y       z     vdW  Elec       q    Type
REMARK                         _______ _______ _______ _____ _____    ______ ____
ROOT
ATOM      1  C   UNL     1      -5.480 -12.614   0.467  0.00  0.00    +0.000 C 
ATOM      2  N   UNL     1      -4.729 -12.444   1.698  0.00  0.00    +0.000 N 
ATOM      3  N   UNL     1      -5.331 -12.828   2.920  0.00  0.00    +0.000 NA
ATOM      4  C   UNL     1      -4.350 -13.349   3.881  0.00  0.00    +0.000 C 
ATOM      5  N   UNL     1      -3.301 -12.343   4.100  0.00  0.00    +0.000 NA
ATOM      6  N   UNL     1      -2.796 -11.754   2.895  0.00  0.00    +0.000 N 
ATOM      7  C   UNL     1      -1.450 -11.209   2.937  0.00  0.00    +0.000 C 
ATOM      8  C   UNL     1      -3.468 -11.822   1.664  0.00  0.00    +0.000 C 
ATOM      9  O   UNL     1      -2.962 -11.437   0.608  0.00  0.00    +0.000 OA
ATOM     10  H   UNL     1      -6.038 -13.541   2.746  0.00  0.00    +0.000 HD
ATOM     11  H   UNL     1      -2.523 -12.835   4.544  0.00  0.00    +0.000 HD
ENDROOT
BRANCH   4  12
ATOM     12  C   UNL     1      -3.851 -14.841   3.584  0.00  0.00    +0.000 C 
ATOM     13  N   UNL     1      -2.527 -15.214   4.099  0.00  0.00    +0.000 NA
ATOM     14  N   UNL     1      -2.538 -15.633   5.464  0.00  0.00    +0.000 N 
ATOM     15  C   UNL     1      -1.276 -15.611   6.183  0.00  0.00    +0.000 C 
ATOM     16  C   UNL     1      -3.652 -16.224   6.072  0.00  0.00    +0.000 C 
ATOM     17  O   UNL     1      -3.622 -16.661   7.223  0.00  0.00    +0.000 OA
ATOM     18  N   UNL     1      -4.836 -16.217   5.306  0.00  0.00    +0.000 N 
ATOM     19  C   UNL     1      -6.012 -16.921   5.789  0.00  0.00    +0.000 C 
ATOM     20  N   UNL     1      -4.818 -15.893   3.920  0.00  0.00    +0.000 NA
ATOM     21  H   UNL     1      -1.961 -14.362   4.054  0.00  0.00    +0.000 HD
ATOM     22  H   UNL     1      -5.749 -15.590   3.640  0.00  0.00    +0.000 HD
ENDBRANCH   4  12
TORSDOF 1
ENDMDL
MODEL 5
REMARK VINA RESULT:      -5.5      4.371      6.981
REMARK  Name = 
REMARK  5 active torsions:
REMARK  status: ('A' for Active; 'I' for Inactive)
REMARK    1  A    between atoms: C_1  and  N_2
REMARK    2  A    between atoms: C_4  and  C_5
REMARK    3  A    between atoms: N_7  and  C_8
REMARK    4  A    between atoms: N_11  and  C_12
REMARK    5  A    between atoms: N_15  and  C_16
REMARK                            x       y       z     vdW  Elec       q    Type
REMARK                         _______ _______ _______ _____ _____    ______ ____
ROOT
ATOM      1  C   UNL     1       1.063  -8.846   3.782  0.00  0.00    +0.000 C 
ATOM      2  N   UNL     1       0.265  -9.753   4.588  0.00  0.00    +0.000 N 
ATOM      3  N   UNL     1      -1.139  -9.577   4.621  0.00  0.00    +0.000 NA
ATOM      4  C   UNL     1      -1.855 -10.853   4.748  0.00  0.00    +0.000 C 
ATOM      5  N   UNL     1      -1.381 -11.560   5.947  0.00  0.00    +0.000 NA
ATOM      6  N   UNL     1       0.046 -11.586   6.083  0.00  0.00    +0.000 N 
ATOM      7  C   UNL     1       0.618 -12.673   6.860  0.00  0.00    +0.000 C 
ATOM      8  C   UNL     1       0.903 -10.721   5.385  0.00  0.00    +0.000 C 
ATOM      9  O   UNL     1       2.129 -10.843   5.400  0.00  0.00    +0.000 OA
ATOM     10  H   UNL     1      -1.447  -9.106   3.771  0.00  0.00    +0.000 HD
ATOM     11  H   UNL     1      -1.692 -12.529   5.847  0.00  0.00    +0.000 HD
ENDROOT
BRANCH   4  12
ATOM     12  C   UNL     1      -1.930 -11.714   3.400  0.00  0.00    +0.000 C 
ATOM     13  N   UNL     1      -1.686 -13.158   3.519  0.00  0.00    +0.000 NA
ATOM     14  N   UNL     1      -2.843 -13.906   3.902  0.00  0.00    +0.000 N 
ATOM     15  C   UNL     1      -2.630 -15.233   4.454  0.00  0.00    +0.000 C 
ATOM     16  C   UNL     1      -4.148 -13.497   3.606  0.00  0.00    +0.000 C 
ATOM     17  O   UNL     1      -5.131 -14.191   3.864  0.00  0.00    +0.000 OA
ATOM     18  N   UNL     1      -4.270 -12.201   3.063  0.00  0.00    +0.000 N 
ATOM     19  C   UNL     1      -5.565 -11.733   2.598  0.00  0.00    +0.000 C 
ATOM     20  N   UNL     1      -3.132 -11.488   2.590  0.00  0.00    +0.000 NA
ATOM     21  H   UNL     1      -1.002 -13.264   4.272  0.00  0.00    +0.000 HD
ATOM     22  H   UNL     1      -3.346 -10.492   2.585  0.00  0.00    +0.000 HD
ENDBRANCH   4  12
TORSDOF 1
ENDMDL
MODEL 6
REMARK VINA RESULT:      -5.5     25.661     27.291
REMARK  Name = 
REMARK  5 active torsions:
REMARK  status: ('A' for Active; 'I' for Inactive)
REMARK    1  A    between atoms: C_1  and  N_2
REMARK    2  A    between atoms: C_4  and  C_5
REMARK    3  A    between atoms: N_7  and  C_8
REMARK    4  A    between atoms: N_11  and  C_12
REMARK    5  A    between atoms: N_15  and  C_16
REMARK                            x       y       z     vdW  Elec       q    Type
REMARK                         _______ _______ _______ _____ _____    ______ ____
ROOT
ATOM      1  C   UNL     1     -19.013 -37.026   6.500  0.00  0.00    +0.000 C 
ATOM      2  N   UNL     1     -18.546 -36.800   7.856  0.00  0.00    +0.000 N 
ATOM      3  N   UNL     1     -19.158 -35.781   8.624  0.00  0.00    +0.000 NA
ATOM      4  C   UNL     1     -19.216 -36.123  10.052  0.00  0.00    +0.000 C 
ATOM      5  N   UNL     1     -17.859 -36.411  10.538  0.00  0.00    +0.000 NA
ATOM      6  N   UNL     1     -17.104 -37.277   9.682  0.00  0.00    +0.000 N 
ATOM      7  C   UNL     1     -16.035 -38.049  10.295  0.00  0.00    +0.000 C 
ATOM      8  C   UNL     1     -17.444 -37.526   8.343  0.00  0.00    +0.000 C 
ATOM      9  O   UNL     1     -16.874 -38.377   7.658  0.00  0.00    +0.000 OA
ATOM     10  H   UNL     1     -20.104 -35.614   8.283  0.00  0.00    +0.000 HD
ATOM     11  H   UNL     1     -17.975 -36.896  11.431  0.00  0.00    +0.000 HD
ENDROOT
BRANCH   4  12
ATOM     12  C   UNL     1     -20.350 -37.185  10.439  0.00  0.00    +0.000 C 
ATOM     13  N   UNL     1     -21.077 -36.953  11.694  0.00  0.00    +0.000 NA
ATOM     14  N   UNL     1     -22.167 -36.038  11.565  0.00  0.00    +0.000 N 
ATOM     15  C   UNL     1     -22.670 -35.419  12.780  0.00  0.00    +0.000 C 
ATOM     16  C   UNL     1     -22.873 -35.856  10.371  0.00  0.00    +0.000 C 
ATOM     17  O   UNL     1     -23.866 -35.131  10.295  0.00  0.00    +0.000 OA
ATOM     18  N   UNL     1     -22.329 -36.498   9.240  0.00  0.00    +0.000 N 
ATOM     19  C   UNL     1     -23.056 -36.482   7.982  0.00  0.00    +0.000 C 
ATOM     20  N   UNL     1     -21.308 -37.482   9.368  0.00  0.00    +0.000 NA
ATOM     21  H   UNL     1     -20.402 -36.523  12.331  0.00  0.00    +0.000 HD
ATOM     22  H   UNL     1     -20.807 -37.554   8.485  0.00  0.00    +0.000 HD
ENDBRANCH   4  12
TORSDOF 1
ENDMDL
MODEL 7
REMARK VINA RESULT:      -5.3     11.948     13.383
REMARK  Name = 
REMARK  5 active torsions:
REMARK  status: ('A' for Active; 'I' for Inactive)
REMARK    1  A    between atoms: C_1  and  N_2
REMARK    2  A    between atoms: C_4  and  C_5
REMARK    3  A    between atoms: N_7  and  C_8
REMARK    4  A    between atoms: N_11  and  C_12
REMARK    5  A    between atoms: N_15  and  C_16
REMARK                            x       y       z     vdW  Elec       q    Type
REMARK                         _______ _______ _______ _____ _____    ______ ____
ROOT
ATOM      1  C   UNL     1      -7.234 -20.734  19.521  0.00  0.00    +0.000 C 
ATOM      2  N   UNL     1      -6.316 -21.150  18.476  0.00  0.00    +0.000 N 
ATOM      3  N   UNL     1      -5.902 -20.196  17.517  0.00  0.00    +0.000 NA
ATOM      4  C   UNL     1      -4.522 -20.425  17.067  0.00  0.00    +0.000 C 
ATOM      5  N   UNL     1      -4.402 -21.793  16.541  0.00  0.00    +0.000 NA
ATOM      6  N   UNL     1      -5.000 -22.793  17.375  0.00  0.00    +0.000 N 
ATOM      7  C   UNL     1      -4.480 -24.146  17.264  0.00  0.00    +0.000 C 
ATOM      8  C   UNL     1      -5.933 -22.501  18.382  0.00  0.00    +0.000 C 
ATOM      9  O   UNL     1      -6.334 -23.346  19.184  0.00  0.00    +0.000 OA
ATOM     10  H   UNL     1      -5.972 -19.259  17.910  0.00  0.00    +0.000 HD
ATOM     11  H   UNL     1      -3.401 -21.994  16.499  0.00  0.00    +0.000 HD
ENDROOT
BRANCH   4  12
ATOM     12  C   UNL     1      -3.395 -19.964  18.108  0.00  0.00    +0.000 C 
ATOM     13  N   UNL     1      -2.100 -20.652  18.032  0.00  0.00    +0.000 NA
ATOM     14  N   UNL     1      -1.219 -20.112  17.045  0.00  0.00    +0.000 N 
ATOM     15  C   UNL     1      -0.121 -20.951  16.596  0.00  0.00    +0.000 C 
ATOM     16  C   UNL     1      -1.260 -18.775  16.636  0.00  0.00    +0.000 C 
ATOM     17  O   UNL     1      -0.440 -18.299  15.849  0.00  0.00    +0.000 OA
ATOM     18  N   UNL     1      -2.350 -18.024  17.124  0.00  0.00    +0.000 N 
ATOM     19  C   UNL     1      -2.413 -16.595  16.866  0.00  0.00    +0.000 C 
ATOM     20  N   UNL     1      -3.174 -18.515  18.174  0.00  0.00    +0.000 NA
ATOM     21  H   UNL     1      -2.310 -21.612  17.749  0.00  0.00    +0.000 HD
ATOM     22  H   UNL     1      -4.075 -18.040  18.137  0.00  0.00    +0.000 HD
ENDBRANCH   4  12
TORSDOF 1
ENDMDL
MODEL 8
REMARK VINA RESULT:      -5.3     10.296     12.795
REMARK  Name = 
REMARK  5 active torsions:
REMARK  status: ('A' for Active; 'I' for Inactive)
REMARK    1  A    between atoms: C_1  and  N_2
REMARK    2  A    between atoms: C_4  and  C_5
REMARK    3  A    between atoms: N_7  and  C_8
REMARK    4  A    between atoms: N_11  and  C_12
REMARK    5  A    between atoms: N_15  and  C_16
REMARK                            x       y       z     vdW  Elec       q    Type
REMARK                         _______ _______ _______ _____ _____    ______ ____
ROOT
ATOM      1  C   UNL     1     -18.535 -12.366   5.494  0.00  0.00    +0.000 C 
ATOM      2  N   UNL     1     -17.143 -12.021   5.263  0.00  0.00    +0.000 N 
ATOM      3  N   UNL     1     -16.195 -12.314   6.272  0.00  0.00    +0.000 NA
ATOM      4  C   UNL     1     -14.883 -12.668   5.713  0.00  0.00    +0.000 C 
ATOM      5  N   UNL     1     -14.414 -11.579   4.844  0.00  0.00    +0.000 NA
ATOM      6  N   UNL     1     -15.408 -11.088   3.936  0.00  0.00    +0.000 N 
ATOM      7  C   UNL     1     -14.936 -10.455   2.716  0.00  0.00    +0.000 C 
ATOM      8  C   UNL     1     -16.782 -11.326   4.095  0.00  0.00    +0.000 C 
ATOM      9  O   UNL     1     -17.614 -11.021   3.238  0.00  0.00    +0.000 OA
ATOM     10  H   UNL     1     -16.531 -13.086   6.847  0.00  0.00    +0.000 HD
ATOM     11  H   UNL     1     -13.658 -11.972   4.280  0.00  0.00    +0.000 HD
ENDROOT
BRANCH   4  12
ATOM     12  C   UNL     1     -14.792 -14.148   5.108  0.00  0.00    +0.000 C 
ATOM     13  N   UNL     1     -14.868 -14.274   3.646  0.00  0.00    +0.000 NA
ATOM     14  N   UNL     1     -13.617 -14.073   2.987  0.00  0.00    +0.000 N 
ATOM     15  C   UNL     1     -13.649 -13.753   1.570  0.00  0.00    +0.000 C 
ATOM     16  C   UNL     1     -12.384 -14.342   3.591  0.00  0.00    +0.000 C 
ATOM     17  O   UNL     1     -11.316 -14.248   2.985  0.00  0.00    +0.000 OA
ATOM     18  N   UNL     1     -12.437 -14.655   4.965  0.00  0.00    +0.000 N 
ATOM     19  C   UNL     1     -11.231 -15.080   5.655  0.00  0.00    +0.000 C 
ATOM     20  N   UNL     1     -13.671 -14.952   5.609  0.00  0.00    +0.000 NA
ATOM     21  H   UNL     1     -15.492 -13.525   3.334  0.00  0.00    +0.000 HD
ATOM     22  H   UNL     1     -13.569 -14.791   6.609  0.00  0.00    +0.000 HD
ENDBRANCH   4  12
TORSDOF 1
ENDMDL
MODEL 9
REMARK VINA RESULT:      -5.3      2.501      4.891
REMARK  Name = 
REMARK  5 active torsions:
REMARK  status: ('A' for Active; 'I' for Inactive)
REMARK    1  A    between atoms: C_1  and  N_2
REMARK    2  A    between atoms: C_4  and  C_5
REMARK    3  A    between atoms: N_7  and  C_8
REMARK    4  A    between atoms: N_11  and  C_12
REMARK    5  A    between atoms: N_15  and  C_16
REMARK                            x       y       z     vdW  Elec       q    Type
REMARK                         _______ _______ _______ _____ _____    ______ ____
ROOT
ATOM      1  C   UNL     1      -0.089 -18.589  -0.156  0.00  0.00    +0.000 C 
ATOM      2  N   UNL     1      -0.850 -17.623   0.616  0.00  0.00    +0.000 N 
ATOM      3  N   UNL     1      -2.205 -17.904   0.911  0.00  0.00    +0.000 NA
ATOM      4  C   UNL     1      -2.610 -17.372   2.219  0.00  0.00    +0.000 C 
ATOM      5  N   UNL     1      -2.349 -15.927   2.258  0.00  0.00    +0.000 NA
ATOM      6  N   UNL     1      -1.056 -15.554   1.765  0.00  0.00    +0.000 N 
ATOM      7  C   UNL     1      -0.494 -14.306   2.255  0.00  0.00    +0.000 C 
ATOM      8  C   UNL     1      -0.260 -16.397   0.972  0.00  0.00    +0.000 C 
ATOM      9  O   UNL     1       0.903 -16.125   0.672  0.00  0.00    +0.000 OA
ATOM     10  H   UNL     1      -2.358 -18.912   0.899  0.00  0.00    +0.000 HD
ATOM     11  H   UNL     1      -2.384 -15.658   3.244  0.00  0.00    +0.000 HD
ENDROOT
BRANCH   4  12
ATOM     12  C   UNL     1      -2.094 -18.222   3.474  0.00  0.00    +0.000 C 
ATOM     13  N   UNL     1      -0.929 -17.696   4.198  0.00  0.00    +0.000 NA
ATOM     14  N   UNL     1      -1.259 -16.706   5.175  0.00  0.00    +0.000 N 
ATOM     15  C   UNL     1      -0.191 -15.832   5.631  0.00  0.00    +0.000 C 
ATOM     16  C   UNL     1      -2.495 -16.662   5.829  0.00  0.00    +0.000 C 
ATOM     17  O   UNL     1      -2.736 -15.858   6.730  0.00  0.00    +0.000 OA
ATOM     18  N   UNL     1      -3.475 -17.547   5.335  0.00  0.00    +0.000 N 
ATOM     19  C   UNL     1      -4.746 -17.674   6.027  0.00  0.00    +0.000 C 
ATOM     20  N   UNL     1      -3.137 -18.597   4.436  0.00  0.00    +0.000 NA
ATOM     21  H   UNL     1      -0.348 -17.236   3.493  0.00  0.00    +0.000 HD
ATOM     22  H   UNL     1      -3.973 -18.877   3.926  0.00  0.00    +0.000 HD
ENDBRANCH   4  12
TORSDOF 1
ENDMDL
